14   
Scan Cycle 1/13 ; Dihedral 1-5-8-11 = 0.00 ; Iteration 39 Energy -13.65724687
C       -0.6087918735   -1.3158307360    0.5745318954
H        0.3017954387   -1.4461194718    1.1528748143
H       -1.3022195019   -0.7066497225    1.1478602501
H       -1.0601343437   -2.2957995636    0.4316603420
C       -0.3165342098   -0.6911716264   -0.7861959949
H        0.3366640728   -1.3721108845   -1.3360246829
H       -1.2557916965   -0.6377802446   -1.3407911812
C        0.3311168397    0.7129425812   -0.7603325893
H        1.2806689289    0.6752789132   -1.2984517152
H       -0.3116871147    1.4094757611   -1.3028229694
C        0.5974817008    1.2988565655    0.6227472543
H        1.2800176702    0.6734731493    1.1916811797
H        1.0513184212    2.2822805493    0.5161185407
H       -0.3239043323    1.4131547298    1.1872048564
14   
Scan Cycle 2/13 ; Dihedral 1-5-8-11 = 15.00 ; Iteration 18 Energy -13.65825117
C       -0.6890016938   -1.2793443737    0.5696188768
H        0.1519293812   -1.3247310945    1.2551055678
H       -1.4769417087   -0.6812997999    1.0217566413
H       -1.0702057632   -2.2895904851    0.4337228657
C       -0.2709526003   -0.7091123026   -0.7817811327
H        0.4926090400   -1.3736199251   -1.1948965111
H       -1.1252313263   -0.7473188697   -1.4597644047
C        0.2854511990    0.7308277049   -0.7562045146
H        1.1523459857    0.7879334563   -1.4166176623
H       -0.4703655365    1.4069369147   -1.1647123705
C        0.6778027806    1.2625700023    0.6183943496
H        1.4572400343    0.6517899603    1.0682395086
H        1.0612314956    2.2761484626    0.5182817000
H       -0.1759112875    1.2888103493    1.2889170862
14   
Scan Cycle 3/13 ; Dihedral 1-5-8-11 = 30.00 ; Iteration 18 Energy -13.66053279
C       -0.7597010041   -1.2539341817    0.5555119974
H        0.0077854109   -1.2495612939    1.3235552407
H       -1.6014078400   -0.6553080086    0.8981945472
H       -1.1042805734   -2.2780330362    0.4264257129
C       -0.2173474844   -0.7247861178   -0.7675541146
H        0.6371027111   -1.3481138576   -1.0468972658
H       -0.9731721376   -0.8485024992   -1.5450326523
C        0.2315828409    0.7461085310   -0.7425535787
H        1.0018941070    0.8915236976   -1.5018456887
H       -0.6176164013    1.3773014127   -1.0202429699
C        0.7487621726    1.2375494574    0.6049108204
H        1.5840199355    0.6292635411    0.9463602846
H        1.0954409718    2.2647926633    0.5113051685
H       -0.0330627090    1.2116996917    1.3579224983
14   
Scan Cycle 4/13 ; Dihedral 1-5-8-11 = 45.00 ; Iteration 18 Energy -13.66279350
C       -0.8324373051   -1.2420873528    0.5320051216
H       -0.1513501662   -1.1950241930    1.3766603146
H       -1.7159716163   -0.6498520223    0.7626584283
H       -1.1411172413   -2.2774919895    0.4036484615
C       -0.1631455813   -0.7366725278   -0.7409291965
H        0.7577221361   -1.3066338417   -0.8936781426
H       -0.8131642869   -0.9318559227   -1.5963552441
C        0.1768855756    0.7572529779   -0.7166300280
H        0.8428598188    0.9763353749   -1.5538013418
H       -0.7410912164    1.3315444645   -0.8705566037
C        0.8219317604    1.2263516229    0.5824539631
H        1.7011193746    0.6276055922    0.8129075237
H        1.1327005552    2.2648850564    0.4892200611
H        0.1250581929    1.1556427610    1.4124566828
14   
Scan Cycle 5/13 ; Dihedral 1-5-8-11 = 60.00 ; Iteration 18 Energy -13.66403271
C       -0.9191880943   -1.2441997308    0.4983257157
H       -0.3563496518   -1.1284381663    1.4204536980
H       -1.8522397036   -0.6917259802    0.5900680351
H       -1.1567212825   -2.2989763625    0.3779576005
C       -0.1187366851   -0.7445288582   -0.6987827086
H        0.8414630335   -1.2657358961   -0.7291074759
H       -0.6570269269   -0.9923605873   -1.6167791436
C        0.1316881066    0.7639281447   -0.6751230479
H        0.6871190456    1.0374340669   -1.5754482046
H       -0.8279081603    1.2860390628   -0.7088137188
C        0.9093013598    1.2293908856    0.5504886704
H        1.8406050709    0.6742990456    0.6441671144
H        1.1487803249    2.2870819992    0.4644446406
H        0.3292135633    1.0877923765    1.4582088247
14   
Scan Cycle 6/13 ; Dihedral 1-5-8-11 = 75.00 ; Iteration 18 Energy -13.66404651
C       -1.0173269737   -1.2506402201    0.4547523062
H       -0.6165589108   -1.0228853865    1.4392895210
H       -1.9957331387   -0.7832053656    0.3654777897
H       -1.1446616515   -2.3285172342    0.3822318188
C       -0.0865849881   -0.7502193685   -0.6437939919
H        0.8879561703   -1.2336370387   -0.5471104330
H       -0.5036145526   -1.0394141862   -1.6117416122
C        0.0985041867    0.7680725399   -0.6206113617
H        0.5336264593    1.0843675205   -1.5719766906
H       -0.8778147535    1.2488273597   -0.5287040490
C        1.0082423552    1.2370328244    0.5089719056
H        1.9882817171    0.7720442538    0.4249934284
H        1.1366344149    2.3164936379    0.4693230745
H        0.5890496653    0.9816806635    1.4789582943
14   
Scan Cycle 7/13 ; Dihedral 1-5-8-11 = 90.00 ; Iteration 18 Energy -13.66306762
C       -1.1082486853   -1.2652069058    0.4020399049
H       -0.8728799329   -0.9518208360    1.4168548195
H       -2.0902867038   -0.8759282329    0.1424245548
H       -1.1544695850   -2.3519148817    0.3833238986
C       -0.0576743592   -0.7557412770   -0.5780943882
H        0.9104789472   -1.2039142037   -0.3479190793
H       -0.3387267009   -1.0806789089   -1.5828250353
C        0.0683589263    0.7717451557   -0.5553386337
H        0.3682119057    1.1248433227   -1.5450196084
H       -0.9040799544    1.2134989350   -0.3308911085
C        1.1001375532    1.2530576467    0.4584148005
H        2.0869978882    0.8710020806    0.2064685592
H        1.1464137957    2.3398485178    0.4712599299
H        0.8457669051    0.9112095875    1.4593613860
14   
Scan Cycle 8/13 ; Dihedral 1-5-8-11 = 105.00 ; Iteration 18 Energy -13.66169130
C       -1.1884183451   -1.2948299775    0.3402044500
H       -1.0946881326   -0.9650129005    1.3728994762
H       -2.1397208563   -0.9386138396   -0.0490383222
H       -1.1996731677   -2.3826990579    0.3287837409
C       -0.0339725581   -0.7605260940   -0.5000482758
H        0.9052462034   -1.1784158813   -0.1338969731
H       -0.1651631284   -1.1083835546   -1.5270509726
C        0.0431890589    0.7743310296   -0.4776491457
H        0.1936205746    1.1510085402   -1.4917668557
H       -0.9028752185    1.1819672609   -0.1176135660
C        1.1814505531    1.2843932704    0.3989623072
H        2.1400152456    0.9390547907    0.0178174462
H        1.1926291211    2.3721481327    0.4184722725
H        1.0683606500    0.9255782810    1.4199844183
14   
Scan Cycle 9/13 ; Dihedral 1-5-8-11 = 120.00 ; Iteration 18 Energy -13.66103712
C       -1.2564401326   -1.3245400541    0.2708340535
H       -1.2957769702   -1.0044515001    1.3099305680
H       -2.1587923029   -0.9795264620   -0.2297285540
H       -1.2475078637   -2.4123049959    0.2479826109
C       -0.0154647800   -0.7633974692   -0.4142369820
H        0.8711703198   -1.1553496942    0.0879387527
H        0.0122176757   -1.1233037178   -1.4444070740
C        0.0230664435    0.7747836208   -0.3921550739
H        0.0147096530    1.1636368167   -1.4120926213
H       -0.8729803850    1.1526384880    0.1040853877
C        1.2507598336    1.3160318183    0.3317527093
H        2.1624780445    0.9850471501   -0.1612541824
H        1.2419703696    2.4040106604    0.3394551045
H        1.2705900947    0.9667253389    1.3619553010
14   
Scan Cycle 10/13 ; Dihedral 1-5-8-11 = 135.00 ; Iteration 18 Energy -13.66164174
C       -1.3093744624   -1.3473958985    0.1966592089
H       -1.4796568697   -1.0422396036    1.2267899227
H       -2.1479132805   -1.0044928866   -0.4063203763
H       -1.2846900252   -2.4345008763    0.1608148432
C       -0.0001378092   -0.7639205170   -0.3222051998
H        0.8140018102   -1.1338463481    0.3054022225
H        0.1832645431   -1.1254384540   -1.3353456893
C        0.0060074523    0.7727123618   -0.3004504435
H       -0.1583629687    1.1627372769   -1.3062576930
H       -0.8199150365    1.1249892221    0.3218939733
C        1.3050767149    1.3409585173    0.2592635614
H        2.1549226932    1.0149919353   -0.3372444483
H        1.2807829460    2.4286486578    0.2536649946
H        1.4559942927    1.0067966129    1.2833951235
14   
Scan Cycle 11/13 ; Dihedral 1-5-8-11 = 150.00 ; Iteration 18 Energy -13.66311506
C       -1.3464483376   -1.3623151707    0.1204904391
H       -1.6484783546   -1.0680620199    1.1231444929
H       -2.1054214674   -1.0196644716   -0.5802525694
H       -1.3077694328   -2.4486480745    0.0786230914
C        0.0120218759   -0.7630333039   -0.2235401204
H        0.7409415416   -1.1181853585    0.5094040910
H        0.3362790857   -1.1172342342   -1.2036038140
C       -0.0080094644    0.7690432945   -0.2020964554
H       -0.3138311971    1.1508578038   -1.1777073556
H       -0.7507085848    1.1035557930    0.5267131788
C        1.3435756528    1.3580123198    0.1842586417
H        2.1157126461    1.0350791135   -0.5114489730
H        1.3054036287    2.4451044550    0.1723550010
H        1.6267324077    1.0354898536    1.1837203520
14   
Scan Cycle 12/13 ; Dihedral 1-5-8-11 = 165.00 ; Iteration 18 Energy -13.66454732
C       -1.3682277632   -1.3700905119    0.0439972284
H       -1.8026364103   -1.0764703369    0.9971024970
H       -2.0296676489   -1.0320654033   -0.7513105181
H       -1.3181338378   -2.4560750118    0.0095435016
C        0.0196306796   -0.7623448313   -0.1188448102
H        0.6561301421   -1.1131851169    0.6975418728
H        0.4663706739   -1.1046509168   -1.0545581699
C       -0.0175900181    0.7654014361   -0.0976243264
H       -0.4467055180    1.1341063703   -1.0315548000
H       -0.6694569225    1.0932235991    0.7161998907
C        1.3667908748    1.3679382687    0.1084395174
H        2.0431930673    1.0523244511   -0.6834860474
H        1.3170662200    2.4544758805    0.1037202403
H        1.7832364611    1.0474121233    1.0608939240
14   
Scan Cycle 13/13 ; Dihedral 1-5-8-11 = 180.00 ; Iteration 18 Energy -13.66512776
C       -1.3750322222   -1.3717982355   -0.0322866609
H       -1.9370688788   -1.0684555409    0.8485661062
H       -1.9205788041   -1.0435485204   -0.9145764261
H       -1.3203429705   -2.4579487265   -0.0471188765
C        0.0215805782   -0.7630203578   -0.0106236506
H        0.5592707721   -1.1195831806    0.8711330364
H        0.5757814139   -1.0946995012   -0.8918680084
C       -0.0215794901    0.7630219877    0.0105167858
H       -0.5591605359    1.1195950832   -0.8713014978
H       -0.5758882906    1.0946926306    0.8916972353
C        1.3750314603    1.3717970944    0.0323760506
H        1.9371977656    1.0684412318   -0.8483897776
H        1.3203424275    2.4579479132    0.0471850510
H        1.9204467745    1.0435581221    0.9147506327
