31
0 1 -1090.778880
C        0.2026890        3.9731270        1.2001560
C       -1.1193000        4.0679850        1.6246770
C        0.5127660        3.4080260       -0.0396320
C       -2.1498180        3.6035210        0.8125460
C       -1.8503720        3.0378440       -0.4255910
C       -0.5292480        2.9388640       -0.8466720
H       -0.2990390        2.5223160       -1.8193790
H        0.9909080        4.3539620        1.8362690
H       -1.3426800        4.5102020        2.5884780
H       -3.1795160        3.6788140        1.1420830
H       -2.6465600        2.6733060       -1.0639420
C        1.9286160        3.3480420       -0.5489600
C        3.0362810        3.3307090        0.4972800
H        3.0475150        4.2446130        1.0935280
H        4.0071790        3.2299550        0.0149570
H        2.8835450        2.4863270        1.1728930
S        2.2207830        4.7417660       -1.7495230
H        2.0385140        2.4948550       -1.2240760
O        3.6614890        4.7834870       -2.0324480
O        1.2453160        4.5896370       -2.8347510
C        1.7914990        6.2118760       -0.8141650
C        0.4603870        6.6173960       -0.7676280
C        0.1265890        7.7282020       -0.0004480
C        1.1147430        8.4145420        0.7039550
C        2.4443410        8.0014500        0.6392590
C        2.7919210        6.8904930       -0.1243840
H        3.8189220        6.5601450       -0.2099280
H       -0.9043700        8.0570600        0.0473300
H       -0.2881940        6.0722530       -1.3263380
H        0.8485840        9.2797040        1.2999050
H        3.2109030        8.5471020        1.1761970
