60
0 1 -2719.022888
C        0.0169650        4.5884550        1.3489050
C        0.9401980        5.2305560        0.2843290
C       -0.6757470        3.4242220        0.6327450
H       -0.7078030        5.2948320        1.7571310
H        0.6096640        4.2128170        2.1848350
C        1.0856890        4.1949020       -0.8623320
H        1.9103020        5.4801660        0.7129510
H        0.5064090        6.1547420       -0.1027570
C        0.4207960        2.8842330       -0.3524480
H       -1.5093260        3.7909290        0.0292340
H       -1.0403330        2.6339360        1.2895640
H        2.1241290        4.0230870       -1.1423900
H        0.5492710        4.5276660       -1.7482610
C        1.3893080        2.0516360        0.4550680
C       -0.2726950        2.1029140       -1.4421370
O        2.4526710        2.7160860        0.9832120
N        1.2607290        0.8280980        0.7592830
C        3.0616690        1.7885700        1.9305560
C        2.4187010        0.4276130        1.5921020
H        2.7938210        2.1253690        2.9332740
H        4.1397850        1.8403820        1.8058090
H        2.0272280       -0.0569480        2.4866010
C        3.2482420       -0.5750940        0.8107090
C        2.7472470       -1.8767860        0.6893250
C        3.4196040       -2.8224430       -0.0761120
C        4.5988770       -2.4634370       -0.7193770
C        5.1086830       -1.1759370       -0.6228190
C        4.4218790       -0.2342230        0.1407720
H        1.7919310       -2.1399070        1.1403210
H        3.0247050       -3.8245430       -0.1772860
Cl       5.4586160       -3.6590430       -1.6853730
H        6.0231010       -0.9124530       -1.1375170
H        4.8192730        0.7724170        0.1902690
N       -0.3771930        0.8363340       -1.5896490
O       -0.9781640        2.8727740       -2.3037180
C       -1.6504110        1.9780860       -3.2320580
C       -1.3707010        0.5688270       -2.6658960
C       -2.5427740       -0.1516380       -2.0393630
H       -0.9064750       -0.0754910       -3.4128710
H       -1.2110270        2.1330530       -4.2173900
H       -2.7054280        2.2448530       -3.2506410
C       -3.3909960        0.5137870       -1.1516850
C       -4.3736500       -0.1745210       -0.4532040
C       -4.5041250       -1.5454860       -0.6487010
C       -2.6957070       -1.5252260       -2.2181070
H       -3.2657290        1.5748710       -0.9673280
H       -5.0149810        0.3359210        0.2521460
C       -3.6764940       -2.2304270       -1.5292090
Cl      -5.7221660       -2.4292230        0.2535030
H       -2.0222570       -2.0604650       -2.8769870
H       -3.7821320       -3.2993120       -1.6549840
Cu      -0.0759350       -0.5904870       -0.2289700
O       -0.3211230       -2.1741450        0.7976530
C       -1.3722510       -2.2665050        1.6668130
C       -1.5130780       -1.0645420        2.5979720
H       -1.2720150       -3.1316310        2.3466880
H       -2.3656600       -2.3575690        1.1859480
F       -0.3722780       -0.7835290        3.2768840
F       -2.4862030       -1.2480670        3.5211110
F       -1.8394310        0.0853660        1.9282130
